data_maleic.1                           Pc
#2 x,-y,1/2+z
# Energy   -93.59 kJ/mol
_symmetry_cell_setting           monoclinic
_symmetry_space_group_name_H-M   'P c'
_symmetry_Int_Tables_number      7
loop_
_symmetry_equiv_pos_site_id
_symmetry_equiv_pos_as_xyz
1 x,y,z
_cell_length_a                   3.8051
_cell_length_b                   7.4961
_cell_length_c                   8.3524
_cell_angle_alpha                90
_cell_angle_beta                 98.849
_cell_angle_gamma                90
_cell_volume                     235.403
loop_
_atom_site_label
_atom_site_type_symbol
_atom_site_fract_x
_atom_site_fract_y
_atom_site_fract_z
O1 O 0.72348 0.01752 0.5891
O? O 0.78581 0.61227 0.618
O3? O 1.08065 -0.12515 0.78932
H1 H 0.98118 -0.21557 0.73256
O4 O 0.58734 0.35203 0.5069
H4 H 0.61825 0.23441 0.52667
C1 C 0.94439 0.02484 0.71348
C2 C 1.09405 0.18615 0.79876
H2 H 1.26593 0.16157 0.89783
C3 C 1.02557 0.35857 0.75781
H3 H 1.15403 0.44922 0.83078
C4 C 0.78783 0.4493 0.62072
O1 O 0.72348 0.98248 0.0891
O2 O 0.78581 0.38773 0.118
O3 O 1.08065 1.12515 0.28932
H1 H 0.98118 1.21557 0.23256
O4 O 0.58734 0.64797 0.0069
H4 H 0.61825 0.76559 0.02667
C1 C 0.94439 0.97516 0.21348
C2 C 1.09405 0.81385 0.29876
H2 H 1.26593 0.83843 0.39783
C3 C 1.02557 0.64143 0.25781
H3 H 1.15403 0.55078 0.33078
C4 C 0.78783 0.5507 0.12072


#END
